src/applications/data_sets/emt/39-bus/IEEE39bus.raw
@!IC, SBASE,REV,XFRRAT,NXFRAT,BASFRQ
0,   100.00, 34,     0,     1, 60.00     / PSS(R)E 34 RAW created by rawd34  TUE, APR 26 2022  15:44
ENGLAND 39 BUS SYSTEM
LOAD LEVEL
GENERAL, THRSHZ=0.0001, PQBRAK=0.7, BLOWUP=5.0
GAUSS, ITMX=100, ACCP=1.6, ACCQ=1.6, ACCM=1.0, TOL=0.0001
NEWTON, ITMXN=20, ACCN=1.0, TOLN=0.1, VCTOLQ=0.1, VCTOLV=0.00001, DVLIM=0.99, NDVFCT=0.99
ADJUST, ADJTHR=0.005, ACCTAP=1.0, TAPLIM=0.05, SWVBND=100.0, MXTPSS=99, MXSWIM=10
TYSL, ITMXTY=20, ACCTY=1.0, TOLTY=0.00001
SOLVER, FNSL, ACTAPS=0, AREAIN=0, PHSHFT=0, DCTAPS=1, SWSHNT=0, FLATST=0, VARLIM=99, NONDIV=0
RATING, 1, "RATE1 ", "RATING SET 1                    "
RATING, 2, "RATE2 ", "RATING SET 2                    "
RATING, 3, "RATE3 ", "RATING SET 3                    "
RATING, 4, "RATE4 ", "RATING SET 4                    "
RATING, 5, "RATE5 ", "RATING SET 5                    "
RATING, 6, "RATE6 ", "RATING SET 6                    "
RATING, 7, "RATE7 ", "RATING SET 7                    "
RATING, 8, "RATE8 ", "RATING SET 8                    "
RATING, 9, "RATE9 ", "RATING SET 9                    "
RATING,10, "RATE10", "RATING SET 10                   "
RATING,11, "RATE11", "RATING SET 11                   "
RATING,12, "RATE12", "RATING SET 12                   "
 0 / END OF SYSTEM-WIDE DATA, BEGIN BUS DATA 
     1,' LBUS01     ',345.0000,1,   1,   1,   1,1.036230,-8.485371,1.100000,0.900000,1.100000,0.900000
     2,' LBUS02     ',345.0000,1,   1,   1,   1,1.019871,-5.596483,1.100000,0.900000,1.100000,0.900000
     3,' LBUS03     ',345.0000,1,   1,   1,   1,1.012298,-8.652352,1.100000,0.900000,1.100000,0.900000
     4,' LBUS04     ',345.0000,1,   1,   1,   1,0.994506,-9.705418,1.100000,0.900000,1.100000,0.900000
     5,' LBUS05     ',345.0000,1,   1,   1,   1,0.999246,-8.692603,1.100000,0.900000,1.100000,0.900000
     6,' LBUS06     ',345.0000,1,   1,   1,   1,1.002132,-8.022850,1.100000,0.900000,1.100000,0.900000
     7,' LBUS07     ',345.0000,1,   1,   1,   1,0.991526,-10.221480,1.100000,0.900000,1.100000,0.900000
     8,' LBUS08     ',345.0000,1,   1,   1,   1,0.990611,-10.718754,1.100000,0.900000,1.100000,0.900000
     9,' LBUS09     ',345.0000,1,   1,   1,   1,1.025996,-10.422340,1.100000,0.900000,1.100000,0.900000
    10,' LBUS10     ',345.0000,1,   1,   1,   1,1.012226,-5.483866,1.100000,0.900000,1.100000,0.900000
    11,' LBUS11     ',345.0000,1,   1,   1,   1,1.007532,-6.346153,1.100000,0.900000,1.100000,0.900000
    12,' LBUS12     ',154.0000,1,   1,   1,   1,0.994629,-6.306444,1.100000,0.900000,1.100000,0.900000
    13,' LBUS13     ',345.0000,1,   1,   1,   1,1.008704,-6.160239,1.100000,0.900000,1.100000,0.900000
    14,' LBUS14     ',345.0000,1,   1,   1,   1,1.004525,-7.736512,1.100000,0.900000,1.100000,0.900000
    15,' LBUS15     ',345.0000,1,   1,   1,   1,1.008430,-7.841144,1.100000,0.900000,1.100000,0.900000
    16,' LBUS16     ',345.0000,1,   1,   1,   1,1.025065,-6.282059,1.100000,0.900000,1.100000,0.900000
    17,' LBUS17     ',345.0000,1,   1,   1,   1,1.023265,-7.404543,1.100000,0.900000,1.100000,0.900000
    18,' LBUS18     ',345.0000,1,   1,   1,   1,1.017714,-8.316895,1.100000,0.900000,1.100000,0.900000
    19,' LBUS19     ',345.0000,1,   1,   1,   1,1.046872,-1.086004,1.100000,0.900000,1.100000,0.900000
    20,' LBUS20     ',345.0000,1,   1,   1,   1,0.988487,-2.083958,1.100000,0.900000,1.100000,0.900000
    21,' LBUS21     ',345.0000,1,   1,   1,   1,1.027038,-3.855257,1.100000,0.900000,1.100000,0.900000
    22,' LBUS22     ',345.0000,1,   1,   1,   1,1.047266, 0.617825,1.100000,0.900000,1.100000,0.900000
    23,' LBUS23     ',345.0000,1,   1,   1,   1,1.042171, 0.418726,1.100000,0.900000,1.100000,0.900000
    24,' LBUS24     ',345.0000,1,   1,   1,   1,1.031197,-6.162597,1.100000,0.900000,1.100000,0.900000
    25,' LBUS25     ',345.0000,1,   1,   1,   1,1.038175,-4.520323,1.100000,0.900000,1.100000,0.900000
    26,' LBUS26     ',345.0000,1,   1,   1,   1,1.040617,-5.673854,1.100000,0.900000,1.100000,0.900000
    27,' LBUS27     ',345.0000,1,   1,   1,   1,1.026720,-7.647979,1.100000,0.900000,1.100000,0.900000
    28,' LBUS28     ',345.0000,1,   1,   1,   1,1.044192,-2.127912,1.100000,0.900000,1.100000,0.900000
    29,' LBUS29     ',345.0000,1,   1,   1,   1,1.045874, 0.649297,1.100000,0.900000,1.100000,0.900000
    30,' GBUS30     ', 22.0000,2,   1,   1,   1,0.979286,-2.953702,1.100000,0.900000,1.100000,0.900000
    31,' GBUS31     ', 22.0000,3,   1,   1,   1,0.982000, 0.000000,1.100000,0.900000,1.100000,0.900000
    32,' GBUS32     ', 22.0000,2,   1,   1,   1,0.983100, 2.551384,1.100000,0.900000,1.100000,0.900000
    33,' GBUS33     ', 22.0000,2,   1,   1,   1,0.997200, 4.138301,1.100000,0.900000,1.100000,0.900000
    34,' GBUS34     ', 22.0000,2,   1,   1,   1,1.009907, 3.131587,1.100000,0.900000,1.100000,0.900000
    35,' GBUS35     ', 22.0000,2,   1,   1,   1,1.049300, 5.591587,1.100000,0.900000,1.100000,0.900000
    36,' GBUS36     ', 22.0000,2,   1,   1,   1,1.063500, 8.288777,1.100000,0.900000,1.100000,0.900000
    37,' GBUS37     ', 22.0000,2,   1,   1,   1,1.027800, 2.363528,1.100000,0.900000,1.100000,0.900000
    38,' GBUS38     ', 22.0000,2,   1,   1,   1,1.026500, 7.728756,1.100000,0.900000,1.100000,0.900000
    39,' GBUS39     ',345.0000,2,   1,   1,   1,1.030000,-10.149643,1.100000,0.900000,1.100000,0.900000
0 / END OF BUS DATA, BEGIN LOAD DATA
     3,'1 ',1,   1,   1,   322.100,     2.401,     0.000,     0.000,     0.000,     0.000,   1,1,0,     0.000,     0.000,0
     4,'1 ',1,   1,   1,   500.200,   184.100,     0.000,     0.000,     0.000,     0.000,   1,1,0,     0.000,     0.000,0
     7,'1 ',1,   1,   1,   233.900,    84.050,     0.000,     0.000,     0.000,     0.000,   1,1,0,     0.000,     0.000,0
     8,'1 ',1,   1,   1,   522.300,   176.100,     0.000,     0.000,     0.000,     0.000,   1,1,0,     0.000,     0.000,0
    12,'1 ',1,   1,   1,     7.503,    88.020,     0.000,     0.000,     0.000,     0.000,   1,1,0,     0.000,     0.000,0
    15,'1 ',1,   1,   1,   320.100,   153.000,     0.000,     0.000,     0.000,     0.000,   1,1,0,     0.000,     0.000,0
    16,'1 ',1,   1,   1,   329.400,    32.300,     0.000,     0.000,     0.000,     0.000,   1,1,0,     0.000,     0.000,0
    18,'1 ',1,   1,   1,   158.100,    30.010,     0.000,     0.000,     0.000,     0.000,   1,1,0,     0.000,     0.000,0
    20,'1 ',1,   1,   1,   628.200,   103.000,     0.000,     0.000,     0.000,     0.000,   1,1,0,     0.000,     0.000,0
    21,'1 ',1,   1,   1,   274.100,   115.000,     0.000,     0.000,     0.000,     0.000,   1,1,0,     0.000,     0.000,0
    23,'1 ',1,   1,   1,   247.500,    84.600,     0.000,     0.000,     0.000,     0.000,   1,1,0,     0.000,     0.000,0
    24,'1 ',1,   1,   1,   308.700,   -92.250,     0.000,     0.000,     0.000,     0.000,   1,1,0,     0.000,     0.000,0
    25,'1 ',1,   1,   1,   224.100,    47.220,     0.000,     0.000,     0.000,     0.000,   1,1,0,     0.000,     0.000,0
    26,'1 ',1,   1,   1,   139.100,    17.010,     0.000,     0.000,     0.000,     0.000,   1,1,0,     0.000,     0.000,0
    27,'1 ',1,   1,   1,   281.100,    75.530,     0.000,     0.000,     0.000,     0.000,   1,1,0,     0.000,     0.000,0
    28,'1 ',1,   1,   1,   206.100,    27.610,     0.000,     0.000,     0.000,     0.000,   1,1,0,     0.000,     0.000,0
    29,'1 ',1,   1,   1,   283.600,    26.910,     0.000,     0.000,     0.000,     0.000,   1,1,0,     0.000,     0.000,0
    31,'1 ',1,   1,   1,     9.202,     4.600,     0.000,     0.000,     0.000,     0.000,   1,1,0,     0.000,     0.000,0
    39,'1 ',1,   1,   1,  1106.000,   250.400,     0.000,     0.000,     0.000,     0.000,   1,1,0,     0.000,     0.000,0
0 / END OF LOAD DATA, BEGIN FIXED SHUNT DATA
0 / END OF FIXED SHUNT DATA, BEGIN GENERATOR DATA
    30,'1 ',   250.000,   146.456,   400.000,   140.000,1.047500,     0,   480.000,   0.00000,   0.09600,   0.00000,   0.00000,   1.00000,1,  100.0,  9999.000, -9999.000,   1,1.0000,0,1,0,1,0,1,0,0
    31,'1 ',   521.222,   195.458,     0.000,     0.000,0.982000,     0,   610.000,   0.00000,   0.24880,   0.00000,   0.00000,   1.00000,1,  100.0,  9999.000, -9999.000,   1,1.0000,0,1,0,1,0,1,0,0
    32,'1 ',   650.000,   206.331,   300.000,   150.000,0.983100,     0,   720.000,   0.00000,   0.27000,   0.00000,   0.00000,   1.00000,1,  100.0,  9999.000, -9999.000,   1,1.0000,0,1,0,1,0,1,0,0
    33,'1 ',   632.000,   110.112,   250.000,     0.000,0.997200,     0,   680.000,   0.00000,   0.25432,   0.00000,   0.00000,   1.00000,1,  100.0,  9999.000, -9999.000,   1,1.0000,0,1,0,1,0,1,0,0
    34,'1 ',   508.000,   165.859,   167.000,     0.000,1.012300,     0,   540.000,   0.00000,   0.45900,   0.00000,   0.00000,   1.00000,1,  100.0,  9999.000, -9999.000,   1,1.0000,0,1,0,1,0,1,0,0
    35,'1 ',   650.000,   212.642,   300.000,  -100.000,1.049300,     0,   720.000,   0.00000,   0.24408,   0.00000,   0.00000,   1.00000,1,  100.0,  9999.000, -9999.000,   1,1.0000,0,1,0,1,0,1,0,0
    36,'1 ',   560.000,   101.306,   240.000,     0.000,1.063500,     0,   610.000,   0.00000,   0.24705,   0.00000,   0.00000,   1.00000,1,  100.0,  9999.000, -9999.000,   1,1.0000,0,1,0,1,0,1,0,0
    37,'1 ',   540.000,    0.622,   250.000,     0.000,1.027800,     0,   600.000,   0.00000,   0.21540,   0.00000,   0.00000,   1.00000,1,  100.0,  9999.000, -9999.000,   1,1.0000,0,1,0,1,0,1,0,0
    38,'1 ',   830.000,    22.96,   300.000,     0.000,1.026500,     0,   890.000,   0.00000,   0.33820,   0.00000,   0.00000,   1.00000,1,  100.0,  9999.000, -9999.000,   1,1.0000,0,1,0,1,0,1,0,0
    39,'1 ',  1000.000,   88.985,  9999.000, -9999.000,1.030000,     0, 10000.000,   0.00000,   0.40000,   0.00000,   0.00000,   1.00000,1,  100.0,  9999.000, -9999.000,   1,1.0000,0,1,0,1,0,1,0,0
0 / END OF GENERATOR DATA, BEGIN BRANCH DATA
     1,     2,'1 ',   0.00350,   0.04110,   0.69870," ",    0.00,    0.00,    0.00,    0.00,    0.00,    0.00,    0.00,    0.00,0,0,0,0,  0.00000,  0.00000,  0.00000,  0.00000,1,1,   0.00,  1,1.0000
     1,    39,'1 ',   0.00100,   0.02500,   0.75000," ",    0.00,    0.00,    0.00,    0.00,    0.00,    0.00,    0.00,    0.00,0,0,0,0,  0.00000,  0.00000,  0.00000,  0.00000,1,1,   0.00,  1,1.0000
     2,     3,'1 ',   0.00130,   0.01510,   0.25720," ",    0.00,    0.00,    0.00,    0.00,    0.00,    0.00,    0.00,    0.00,0,0,0,0,  0.00000,  0.00000,  0.00000,  0.00000,1,1,   0.00,  1,1.0000
     2,    25,'1 ',   0.00700,   0.00860,   0.14600," ",    0.00,    0.00,    0.00,    0.00,    0.00,    0.00,    0.00,    0.00,0,0,0,0,  0.00000,  0.00000,  0.00000,  0.00000,1,1,   0.00,  1,1.0000
     3,     4,'1 ',   0.00130,   0.02130,   0.22140," ",    0.00,    0.00,    0.00,    0.00,    0.00,    0.00,    0.00,    0.00,0,0,0,0,  0.00000,  0.00000,  0.00000,  0.00000,1,1,   0.00,  1,1.0000
     3,    18,'1 ',   0.00110,   0.01330,   0.21380," ",    0.00,    0.00,    0.00,    0.00,    0.00,    0.00,    0.00,    0.00,0,0,0,0,  0.00000,  0.00000,  0.00000,  0.00000,1,1,   0.00,  1,1.0000
     4,     5,'1 ',   0.00080,   0.01280,   0.13420," ",    0.00,    0.00,    0.00,    0.00,    0.00,    0.00,    0.00,    0.00,0,0,0,0,  0.00000,  0.00000,  0.00000,  0.00000,1,1,   0.00,  1,1.0000
     4,    14,'1 ',   0.00080,   0.01290,   0.13820," ",    0.00,    0.00,    0.00,    0.00,    0.00,    0.00,    0.00,    0.00,0,0,0,0,  0.00000,  0.00000,  0.00000,  0.00000,1,1,   0.00,  1,1.0000
     5,     6,'1 ',   0.00020,   0.00260,   0.04340," ",    0.00,    0.00,    0.00,    0.00,    0.00,    0.00,    0.00,    0.00,0,0,0,0,  0.00000,  0.00000,  0.00000,  0.00000,1,1,   0.00,  1,1.0000
     5,     8,'1 ',   0.00080,   0.01120,   0.14760," ",    0.00,    0.00,    0.00,    0.00,    0.00,    0.00,    0.00,    0.00,0,0,0,0,  0.00000,  0.00000,  0.00000,  0.00000,1,1,   0.00,  1,1.0000
     6,     7,'1 ',   0.00060,   0.00920,   0.11300," ",    0.00,    0.00,    0.00,    0.00,    0.00,    0.00,    0.00,    0.00,0,0,0,0,  0.00000,  0.00000,  0.00000,  0.00000,1,1,   0.00,  1,1.0000
     6,    11,'1 ',   0.00070,   0.00820,   0.13890," ",    0.00,    0.00,    0.00,    0.00,    0.00,    0.00,    0.00,    0.00,0,0,0,0,  0.00000,  0.00000,  0.00000,  0.00000,1,1,   0.00,  1,1.0000
     7,     8,'1 ',   0.00040,   0.00460,   0.07800," ",    0.00,    0.00,    0.00,    0.00,    0.00,    0.00,    0.00,    0.00,0,0,0,0,  0.00000,  0.00000,  0.00000,  0.00000,1,1,   0.00,  1,1.0000
     8,     9,'1 ',   0.00230,   0.03630,   0.38040," ",    0.00,    0.00,    0.00,    0.00,    0.00,    0.00,    0.00,    0.00,0,0,0,0,  0.00000,  0.00000,  0.00000,  0.00000,1,1,   0.00,  1,1.0000
     9,    39,'1 ',   0.00100,   0.02500,   1.20000," ",    0.00,    0.00,    0.00,    0.00,    0.00,    0.00,    0.00,    0.00,0,0,0,0,  0.00000,  0.00000,  0.00000,  0.00000,1,1,   0.00,  1,1.0000
    10,    11,'1 ',   0.00040,   0.00430,   0.07290," ",    0.00,    0.00,    0.00,    0.00,    0.00,    0.00,    0.00,    0.00,0,0,0,0,  0.00000,  0.00000,  0.00000,  0.00000,1,1,   0.00,  1,1.0000
    10,    13,'1 ',   0.00040,   0.00430,   0.07290," ",    0.00,    0.00,    0.00,    0.00,    0.00,    0.00,    0.00,    0.00,0,0,0,0,  0.00000,  0.00000,  0.00000,  0.00000,1,1,   0.00,  1,1.0000
    13,    14,'1 ',   0.00090,   0.01010,   0.17230," ",    0.00,    0.00,    0.00,    0.00,    0.00,    0.00,    0.00,    0.00,0,0,0,0,  0.00000,  0.00000,  0.00000,  0.00000,1,1,   0.00,  1,1.0000
    14,    15,'1 ',   0.00180,   0.02170,   0.36600," ",    0.00,    0.00,    0.00,    0.00,    0.00,    0.00,    0.00,    0.00,0,0,0,0,  0.00000,  0.00000,  0.00000,  0.00000,1,1,   0.00,  1,1.0000
    15,    16,'1 ',   0.00090,   0.00940,   0.17100," ",    0.00,    0.00,    0.00,    0.00,    0.00,    0.00,    0.00,    0.00,0,0,0,0,  0.00000,  0.00000,  0.00000,  0.00000,1,1,   0.00,  1,1.0000
    16,    17,'1 ',   0.00070,   0.00890,   0.13420," ",    0.00,    0.00,    0.00,    0.00,    0.00,    0.00,    0.00,    0.00,0,0,0,0,  0.00000,  0.00000,  0.00000,  0.00000,1,1,   0.00,  1,1.0000
    16,    19,'1 ',   0.00160,   0.01950,   0.30400," ",    0.00,    0.00,    0.00,    0.00,    0.00,    0.00,    0.00,    0.00,0,0,0,0,  0.00000,  0.00000,  0.00000,  0.00000,1,1,   0.00,  1,1.0000
    16,    21,'1 ',   0.00080,   0.01350,   0.25480," ",    0.00,    0.00,    0.00,    0.00,    0.00,    0.00,    0.00,    0.00,0,0,0,0,  0.00000,  0.00000,  0.00000,  0.00000,1,1,   0.00,  1,1.0000
    16,    24,'1 ',   0.00030,   0.00590,   0.06800," ",    0.00,    0.00,    0.00,    0.00,    0.00,    0.00,    0.00,    0.00,0,0,0,0,  0.00000,  0.00000,  0.00000,  0.00000,1,1,   0.00,  1,1.0000
    17,    18,'1 ',   0.00070,   0.00820,   0.13190," ",    0.00,    0.00,    0.00,    0.00,    0.00,    0.00,    0.00,    0.00,0,0,0,0,  0.00000,  0.00000,  0.00000,  0.00000,1,1,   0.00,  1,1.0000
    17,    27,'1 ',   0.00130,   0.01730,   0.32160," ",    0.00,    0.00,    0.00,    0.00,    0.00,    0.00,    0.00,    0.00,0,0,0,0,  0.00000,  0.00000,  0.00000,  0.00000,1,1,   0.00,  1,1.0000
    21,    22,'1 ',   0.00080,   0.01400,   0.25650," ",    0.00,    0.00,    0.00,    0.00,    0.00,    0.00,    0.00,    0.00,0,0,0,0,  0.00000,  0.00000,  0.00000,  0.00000,1,1,   0.00,  1,1.0000
    22,    23,'1 ',   0.00060,   0.00960,   0.18460," ",    0.00,    0.00,    0.00,    0.00,    0.00,    0.00,    0.00,    0.00,0,0,0,0,  0.00000,  0.00000,  0.00000,  0.00000,1,1,   0.00,  1,1.0000
    23,    24,'1 ',   0.00220,   0.03500,   0.36100," ",    0.00,    0.00,    0.00,    0.00,    0.00,    0.00,    0.00,    0.00,0,0,0,0,  0.00000,  0.00000,  0.00000,  0.00000,1,1,   0.00,  1,1.0000
    25,    26,'1 ',   0.00320,   0.03230,   0.51300," ",    0.00,    0.00,    0.00,    0.00,    0.00,    0.00,    0.00,    0.00,0,0,0,0,  0.00000,  0.00000,  0.00000,  0.00000,1,1,   0.00,  1,1.0000
    26,    27,'1 ',   0.00140,   0.01470,   0.23960," ",    0.00,    0.00,    0.00,    0.00,    0.00,    0.00,    0.00,    0.00,0,0,0,0,  0.00000,  0.00000,  0.00000,  0.00000,1,1,   0.00,  1,1.0000
    26,    28,'1 ',   0.00430,   0.04740,   0.78020," ",    0.00,    0.00,    0.00,    0.00,    0.00,    0.00,    0.00,    0.00,0,0,0,0,  0.00000,  0.00000,  0.00000,  0.00000,1,1,   0.00,  1,1.0000
    26,    29,'1 ',   0.00570,   0.06250,   1.02900," ",    0.00,    0.00,    0.00,    0.00,    0.00,    0.00,    0.00,    0.00,0,0,0,0,  0.00000,  0.00000,  0.00000,  0.00000,1,1,   0.00,  1,1.0000
    28,    29,'1 ',   0.00140,   0.01510,   0.24900," ",    0.00,    0.00,    0.00,    0.00,    0.00,    0.00,    0.00,    0.00,0,0,0,0,  0.00000,  0.00000,  0.00000,  0.00000,1,1,   0.00,  1,1.0000
0 / END OF BRANCH DATA, BEGIN SYSTEM SWITCHING DEVICE DATA
0 / END OF SYSTEM SWITCHING DEVICE DATA, BEGIN TRANSFORMER DATA
     2,    30,     0,'1 ', 1, 1, 1, 0.00000E+00, 0.00000E+00,2,'                                        ',1,   1,1.0000,   0,1.0000,   0,1.0000,   0,1.0000,'            '
 0.00000E+0, 1.81000E-2,   100.00
1.02500,   0.000,   0.000,     0.00,     0.00,     0.00,     0.00,     0.00,     0.00,     0.00,     0.00,     0.00,     0.00,     0.00,     0.00, 0,      0, 1.10000, 0.90000, 1.10000, 0.90000, 999, 0, 0.00000, 0.00000,  0.000,   0
1.00000,   0.000
     6,    31,     0,'1 ', 1, 1, 1, 0.00000E+00, 0.00000E+00,2,'                                        ',1,   1,1.0000,   0,1.0000,   0,1.0000,   0,1.0000,'            '
 0.00000E+0, 2.50000E-2,   100.00
1.06875,   0.000,   0.000,     0.00,     0.00,     0.00,     0.00,     0.00,     0.00,     0.00,     0.00,     0.00,     0.00,     0.00,     0.00, 1,      6, 1.10000, 0.90000, 1.17000, 0.91000,  33, 0, 0.00000, 0.00000,  0.000,   0
1.00000,   0.000
    10,    32,     0,'1 ', 1, 1, 1, 0.00000E+00, 0.00000E+00,2,'                                        ',1,   1,1.0000,   0,1.0000,   0,1.0000,   0,1.0000,'            '
 0.00000E+0, 2.00000E-2,   100.00
1.07000,   0.000,   0.000,     0.00,     0.00,     0.00,     0.00,     0.00,     0.00,     0.00,     0.00,     0.00,     0.00,     0.00,     0.00, 0,      0, 1.10000, 0.90000, 1.10000, 0.90000, 999, 0, 0.00000, 0.00000,  0.000,   0
1.00000,   0.000
    12,    11,     0,'1 ', 1, 1, 1, 0.00000E+00, 0.00000E+00,2,'                                        ',1,   1,1.0000,   0,1.0000,   0,1.0000,   0,1.0000,'            '
 1.60000E-3, 4.35000E-2,   100.00
1.00600,   0.000,   0.000,     0.00,     0.00,     0.00,     0.00,     0.00,     0.00,     0.00,     0.00,     0.00,     0.00,     0.00,     0.00, 0,      0, 1.10000, 0.90000, 1.10000, 0.90000, 999, 0, 0.00000, 0.00000,  0.000,   0
1.00000,   0.000
    12,    13,     0,'1 ', 1, 1, 1, 0.00000E+00, 0.00000E+00,2,'                                        ',1,   1,1.0000,   0,1.0000,   0,1.0000,   0,1.0000,'            '
 1.60000E-3, 4.35000E-2,   100.00
1.00600,   0.000,   0.000,     0.00,     0.00,     0.00,     0.00,     0.00,     0.00,     0.00,     0.00,     0.00,     0.00,     0.00,     0.00, 0,      0, 1.10000, 0.90000, 1.10000, 0.90000, 999, 0, 0.00000, 0.00000,  0.000,   0
1.00000,   0.000
    19,    20,     0,'1 ', 1, 1, 1, 0.00000E+00, 0.00000E+00,2,'                                        ',1,   1,1.0000,   0,1.0000,   0,1.0000,   0,1.0000,'            '
 7.00000E-4, 1.38000E-2,   100.00
1.06000,   0.000,   0.000,     0.00,     0.00,     0.00,     0.00,     0.00,     0.00,     0.00,     0.00,     0.00,     0.00,     0.00,     0.00, 0,      0, 1.10000, 0.90000, 1.10000, 0.90000, 999, 0, 0.00000, 0.00000,  0.000,   0
1.00000,   0.000
    19,    33,     0,'1 ', 1, 1, 1, 0.00000E+00, 0.00000E+00,2,'                                        ',1,   1,1.0000,   0,1.0000,   0,1.0000,   0,1.0000,'            '
 7.00000E-4, 1.42000E-2,   100.00
1.07000,   0.000,   0.000,     0.00,     0.00,     0.00,     0.00,     0.00,     0.00,     0.00,     0.00,     0.00,     0.00,     0.00,     0.00, 0,      0, 1.10000, 0.90000, 1.10000, 0.90000, 999, 0, 0.00000, 0.00000,  0.000,   0
1.00000,   0.000
    20,    34,     0,'1 ', 1, 1, 1, 0.00000E+00, 0.00000E+00,2,'                                        ',1,   1,1.0000,   0,1.0000,   0,1.0000,   0,1.0000,'            '
 9.00000E-4, 1.80000E-2,   100.00
1.00900,   0.000,   0.000,     0.00,     0.00,     0.00,     0.00,     0.00,     0.00,     0.00,     0.00,     0.00,     0.00,     0.00,     0.00, 0,      0, 1.10000, 0.90000, 1.10000, 0.90000, 999, 0, 0.00000, 0.00000,  0.000,   0
1.00000,   0.000
    22,    35,     0,'1 ', 1, 1, 1, 0.00000E+00, 0.00000E+00,2,'                                        ',1,   1,1.0000,   0,1.0000,   0,1.0000,   0,1.0000,'            '
 0.00000E+0, 1.43000E-2,   100.00
1.02500,   0.000,   0.000,     0.00,     0.00,     0.00,     0.00,     0.00,     0.00,     0.00,     0.00,     0.00,     0.00,     0.00,     0.00, 0,      0, 1.10000, 0.90000, 1.10000, 0.90000, 999, 0, 0.00000, 0.00000,  0.000,   0
1.00000,   0.000
    23,    36,     0,'1 ', 1, 1, 1, 0.00000E+00, 0.00000E+00,2,'                                        ',1,   1,1.0000,   0,1.0000,   0,1.0000,   0,1.0000,'            '
 5.00000E-4, 2.72000E-2,   100.00
1.00000,   0.000,   0.000,     0.00,     0.00,     0.00,     0.00,     0.00,     0.00,     0.00,     0.00,     0.00,     0.00,     0.00,     0.00, 0,      0, 1.10000, 0.90000, 1.10000, 0.90000, 999, 0, 0.00000, 0.00000,  0.000,   0
1.00000,   0.000
    25,    37,     0,'1 ', 1, 1, 1, 0.00000E+00, 0.00000E+00,2,'                                        ',1,   1,1.0000,   0,1.0000,   0,1.0000,   0,1.0000,'            '
 6.00000E-4, 2.32000E-2,   100.00
1.02500,   0.000,   0.000,     0.00,     0.00,     0.00,     0.00,     0.00,     0.00,     0.00,     0.00,     0.00,     0.00,     0.00,     0.00, 0,      0, 1.10000, 0.90000, 1.10000, 0.90000, 999, 0, 0.00000, 0.00000,  0.000,   0
1.00000,   0.000
    29,    38,     0,'1 ', 1, 1, 1, 0.00000E+00, 0.00000E+00,2,'                                        ',1,   1,1.0000,   0,1.0000,   0,1.0000,   0,1.0000,'            '
 8.00000E-4, 1.56000E-2,   100.00
1.02500,   0.000,   0.000,     0.00,     0.00,     0.00,     0.00,     0.00,     0.00,     0.00,     0.00,     0.00,     0.00,     0.00,     0.00, 0,      0, 1.10000, 0.90000, 1.10000, 0.90000, 999, 0, 0.00000, 0.00000,  0.000,   0
1.00000,   0.000
0 / END OF TRANSFORMER DATA, BEGIN AREA DATA
0 / END OF AREA DATA, BEGIN TWO-TERMINAL DC DATA
0 / END OF TWO-TERMINAL DC DATA, BEGIN VOLTAGE SOURCE DC DATA
0 / END OF VOLTAGE SOURCE DC DATA, BEGIN IMPEDANCE CORRECTIOIN DATA
0 / END OF IMPEDANCE CORRECTION DATA, BEGIN MULTI-TERMINAL DC DATA
0 / END OF MULTI-TERMINAL DC DATA, BEGIN MULTI-SECTION LINE DATA
0 / END OF MULTI-SECTION LINE DATA, BEGIN ZONE DATA
    1,'ZONE_1      '
0 / END OF ZONE DATA, BEGIN INTER-AREA TRANSFER DATA
0 / END OF INTER-AREA TRANSFER DATA, BEGIN OWNER DATA
    1,'OWNER_1     '
0 / END OF OWNER DATA, BEGIN FACTS DEVICE DATA
0 / END OF FACTS DEVICE DATA BEGIN SWITCHED SHUNT DATA
0 / END OF SWITCHED SHUNT DATA, BEGIN GNE DATA 
0 / END OF GNE DATA, BEGIN INDUCTION MACHINE DATA 
0 / END OF INDUCTION MACHINE DATA 
0 / END OF SUBSTATION DATA 
0 / END OF NODE DATA 
Q 
